#
# Generated by PyRED version JUL-2025
#     http://q4md-forcefieldtools.org
#
@<TRIPOS>MOLECULE
T00
    44    45     1     0     1
SMALL
USER_CHARGES
@<TRIPOS>ATOM
   1 C1    -6.108887  -1.573873   0.018541 CT   1   T00 -0.0223  0.0000 ****
   2 H11   -6.343212  -2.592904  -0.262747 H1   1   T00  0.0558  0.0000 ****
   3 H1    -6.674008  -1.341327   0.914157 H1   1   T00  0.0558  0.0000 ****
   4 H13   -6.459415  -0.914725  -0.776661 H1   1   T00  0.0558  0.0000 ****
   5 N     -4.691861  -1.479199   0.306047 NT   1   T00 -0.6253  0.0000 ****
   6 H2    -4.141596  -1.903630  -0.411973 H    1   T00  0.3838  0.0000 ****
   7 CA    -4.199327  -0.179372   0.695789 CX   1   T00  0.0669  0.0000 ****
   8 HA    -4.963545   0.283370   1.311656 H1   1   T00  0.1049  0.0000 ****
   9 C     -3.919481   0.852269  -0.417260 C    1   T00  0.5862  0.0000 ****
  10 O     -3.700487   1.980279  -0.095362 O    1   T00 -0.5460  0.0000 ****
  11 C2    -3.907083   0.429278  -1.868308 CT   1   T00 -0.2878  0.0000 ****
  12 H21   -3.695344   1.295043  -2.479680 HC   1   T00  0.0856  0.0000 ****
  13 H22   -3.142511  -0.322454  -2.037112 HC   1   T00  0.0856  0.0000 ****
  14 H23   -4.859779   0.004431  -2.163752 HC   1   T00  0.0856  0.0000 ****
  15 CB    -2.967503  -0.296567   1.608236 CT   1   T00 -0.0636  0.0000 ****
  16 HB1   -2.654579   0.694267   1.901060 H1   1   T00  0.0894  0.0000 ****
  17 HB2   -3.245129  -0.870424   2.480597 H1   1   T00  0.0894  0.0000 ****
  18 SG    -1.594057  -1.125338   0.731733 S    1   T00 -0.3149  0.0000 ****
  19 C01    0.907371   0.324508   3.577481 CA   1   T00 -0.2048  0.0000 ****
  20 H01    0.869307   0.562204   4.621270 HA   1   T00  0.1981  0.0000 ****
  21 C02   -0.203247  -0.169682   2.921555 CA   1   T00 -0.0900  0.0000 ****
  22 H02   -1.104713  -0.318756   3.481372 HA   1   T00  0.1364  0.0000 ****
  23 C03   -0.162093  -0.487987   1.566860 CA   1   T00  0.2019  0.0000 ****
  24 C04    1.041029  -0.304461   0.866601 CA   1   T00 -0.1457  0.0000 ****
  25 C05    2.154850   0.188304   1.524257 CA   1   T00 -0.0884  0.0000 ****
  26 H05    3.084609   0.319598   1.007680 HA   1   T00  0.1360  0.0000 ****
  27 C06    2.077448   0.497907   2.867984 CA   1   T00  0.0207  0.0000 ****
  28 N07    3.256225   1.015033   3.544635 N2   1   T00  0.7460  0.0000 ****
  29 O08    4.242217   1.177459   2.890983 O    1   T00 -0.4452  0.0000 ****
  30 O09    3.164802   1.249221   4.710867 O    1   T00 -0.4452  0.0000 ****
  31 C10    1.168959  -0.698292  -0.581955 C    1   T00  0.5561  0.0000 ****
  32 O11    0.807338  -1.768413  -0.970560 O    1   T00 -0.4241  0.0000 ****
  33 N12    1.739298   0.259767  -1.369218 N    1   T00 -0.3206  0.0000 ****
  34 H12    1.879971   1.149435  -0.946714 H    1   T00  0.2508  0.0000 ****
  35 C13    2.036617   0.198653  -2.736928 CD   1   T00  0.2036  0.0000 ****
  36 C14    2.507799   1.359056  -3.344463 CA   1   T00 -0.2852  0.0000 ****
  37 H14    2.629352   2.269827  -2.785379 HA   1   T00  0.1341  0.0000 ****
  38 C15    2.819956   1.325699  -4.687446 CA   1   T00  0.2686  0.0000 ****
  39 H15    3.184942   2.214360  -5.171685 H4   1   T00  0.0811  0.0000 ****
  40 N16    2.700326   0.250861  -5.446629 NC   1   T00 -0.5677  0.0000 ****
  41 C17    2.253997  -0.842493  -4.858091 CA   1   T00  0.2686  0.0000 ****
  42 H17    2.161451  -1.712035  -5.485032 H4   1   T00  0.0811  0.0000 ****
  43 C18    1.906107  -0.940106  -3.520990 CA   1   T00 -0.2852  0.0000 ****
  44 H18    1.547177  -1.861070  -3.116996 HA   1   T00  0.1341  0.0000 ****
@<TRIPOS>BOND
    1     1     2 1
    2     1     3 1
    3     1     4 1
    4     1     5 1
    5     5     6 1
    6     5     7 1
    7     7     8 1
    8     7     9 1
    9     7    15 1
   10     9    10 1
   11     9    11 1
   12    11    12 1
   13    11    13 1
   14    11    14 1
   15    15    16 1
   16    15    17 1
   17    15    18 1
   18    18    23 1
   19    19    20 1
   20    19    21 1
   21    19    27 1
   22    21    22 1
   23    21    23 1
   24    23    24 1
   25    24    25 1
   26    24    31 1
   27    25    26 1
   28    25    27 1
   29    27    28 1
   30    28    29 1
   31    28    30 1
   32    31    32 1
   33    31    33 1
   34    33    34 1
   35    33    35 1
   36    35    36 1
   37    35    43 1
   38    36    37 1
   39    36    38 1
   40    38    39 1
   41    38    40 1
   42    40    41 1
   43    41    42 1
   44    41    43 1
   45    43    44 1
@<TRIPOS>SUBSTRUCTURE
      1 T00               1 ****               0 ****  ****
@<TRIPOS>HEADTAIL
0 0
0 0
@<TRIPOS>RESIDUECONNECT
1 0 0 0 0 0 0
